/*--------------------------------*- C++ -*----------------------------------*\
| =========                 |                                                 |
| \\      /  F ield         | OpenFOAM: The Open Source CFD Toolbox           |
|  \\    /   O peration     | Version:  v2006                                 |
|   \\  /    A nd           | Website:  www.openfoam.com                      |
|    \\/     M anipulation  |                                                 |
\*---------------------------------------------------------------------------*/
FoamFile
{
    version     2.0;
    format      ascii;
    class       volScalarField;
    object      p_rgh;
}
// * * * * * * * * * * * * * * * * * * * * * * * * * * * * * * * * * * * * * //

dimensions      [0 2 -2 0 0 0 0];

internalField   uniform 0;

boundaryField
{
    inlet
    {
        // The pressure BC is calculated based on the velocity BCcd
        type            fixedFluxPressure;
        gradient        uniform 0;
        value           uniform 0;
    }

    outlet
    {
        type            fixedValue;
        value           uniform 0;
    }

    bottom
    {
        type            fixedFluxPressure;
    }

    heater
    {
        type            fixedFluxPressure;
    }

    top
    {
        type            fixedFluxPressure;
    }

    front
    {
        type            fixedFluxPressure;
    }

    back
    {
        type            fixedFluxPressure;
    }
}

// ************************************************************************* //
