/*--------------------------------*- C++ -*----------------------------------*\
| =========                 |                                                 |
| \\      /  F ield         | OpenFOAM: The Open Source CFD Toolbox           |
|  \\    /   O peration     | Version:  v2306                                 |
|   \\  /    A nd           | Website:  www.openfoam.com                      |
|    \\/     M anipulation  |                                                 |
\*---------------------------------------------------------------------------*/
FoamFile
{
    version     2.0;
    format      ascii;
    class       volScalarField;
    object      T;
}
// * * * * * * * * * * * * * * * * * * * * * * * * * * * * * * * * * * * * * //

dimensions          [0 0 0 1 0 0 0];

internalField       uniform 372.99; //360;

boundaryField
{

    bottom
    {
        type            fixedValue;
        value           uniform 374; //383;
        //type            externalWallHeatFluxTemperature;
        //mode            flux;
    }
    top
    {
        type            inletOutlet;
        inletValue      $internalField;
        value           $internalField;
    }

    walls
    {
        type            zeroGradient;
    }
}


// ************************************************************************* //
