/*--------------------------------*- C++ -*----------------------------------*\
| =========                 |                                                 |
| \\      /  F ield         | OpenFOAM: The Open Source CFD Toolbox           |
|  \\    /   O peration     | Version:  v2006                                 |
|   \\  /    A nd           | Website:  www.openfoam.com                      |
|    \\/     M anipulation  |                                                 |
\*---------------------------------------------------------------------------*/
FoamFile
{
    version     2.0;
    format      ascii;
    class       dictionary;
    object      blockMeshDict;
}
// * * * * * * * * * * * * * * * * * * * * * * * * * * * * * * * * * * * * * //

scale   0.001;// scales to mm 

vertices
(
    //square channle
    (0 0 0) // 0
    (20 0 0) // 1
    (20 10 0) // 2
    (0 10 0) // 3
    (0 0 350) // 4
    (20 0 350) // 5
    (20 10 350) // 6
    (0 10 350) // 7

    // square section
    (0 0 50) // 8
    (20 0 50) // 9
    (20 10 50) // 10
    (0 10 50) // 11
    (0 0 300) // 12
    (20 0 300) // 13
    (20 10 300) // 14
    (0 10 300) // 15
);

blocks
(
    hex (0 1 2 3 8 9 10 11) (20 20 50) simpleGrading (1 1 1)
    hex (8 9 10 11 12 13 14 15) (20 20 250) simpleGrading (1 1 1)
    hex (12 13 14 15 4 5 6 7) (20 20 50) simpleGrading (1 1 1)
);

edges
(
);

boundary
(
    inlet
    {
        type patch;
        faces
        (
            (0 1 2 3)
        );
    }
    
    outlet
    {
        type patch;
        faces
        (
            (4 5 6 7)
        );
    }

    bottom
    {
        type wall;
        faces
        (
            (0 1 9 8)
            (12 13 5 4)
        );
    }

    heater
    {
        type wall;
        faces
        (
            (8 9 13 12)
        );
    }

    top
    {
        type wall;
        faces
        (
            (3 2 10 11)
            (11 10 14 15)
            (15 14 6 7)
        );
    }

    front
    {
        type wall;
        faces
        (
            (1 9 10 2)
            (9 13 14 10)
            (13 5 6 14)
        );
    }

    back
    {
        type wall;
        faces
        (
            (0 8 11 3)
            (8 12 15 11)
            (12 4 7 15)
        );
    }
);

mergePatchPairs
(
);

// ************************************************************************* //
